/*--------------------------------*- C++ -*----------------------------------*\
  =========                 |
  \\      /  F ield         | OpenFOAM: The Open Source CFD Toolbox
   \\    /   O peration     | Website:  https://openfoam.org
    \\  /    A nd           | Version:  13
     \\/     M anipulation  |
\*---------------------------------------------------------------------------*/
FoamFile
{
    format      ascii;
    class       dictionary;
    object      controlDict;
}
// * * * * * * * * * * * * * * * * * * * * * * * * * * * * * * * * * * * * * //
application simpleFoam;
stopAt endTime;
endTime 1000;
deltaT 1;
writeControl timeStep;
writeInterval 100;
purgeWrite 0;

startTime       0;
writeFormat     ascii;
writePrecision  6;
runTimeModifiable true;
libs ("libatmosphericModels.so");
functions
{
    surfacesVTK
    {
        type            surfaces;
        libs            ("libsampling.so");
        writeControl    writeTime;
        writeInterval   1000;  
        surfaceFormat   vtk;
    	interpolationScheme cell;
        
        // This ensures OpenFOAM tracks fields on the modified geometry
        fields          ( U k ); 

        surfaces
        {
            pedestrianZone
	    {
                type            cuttingPlane;
                planeType       pointAndNormal;
                pointAndNormalDict
                {
                    point       (0 0 1.5);
                    normal      (0 0 1);
                }
                signed          false;
                topology        proximityRegions; 
                absProximity    1.8;          
            }
            uticZone
            {
                type            cuttingPlane;
                planeType       pointAndNormal;
                pointAndNormalDict
                {
                    point       (0 0 10.0);
                    normal      (0 0 1);
                }
                signed          false;
                topology        proximityRegions; 
                absProximity    11.0;          
            }
        }
    }
}