/*--------------------------------*- C++ -*----------------------------------*\
  =========                 |
  \\      /  F ield         | OpenFOAM: The Open Source CFD Toolbox
   \\    /   O peration     | Website:  https://openfoam.org
    \\  /    A nd           | Version:  13
     \\/     M anipulation  |
\*---------------------------------------------------------------------------*/
FoamFile
{
    format      ascii;
    class       dictionary;
    object      fvSolution;
}
// * * * * * * * * * * * * * * * * * * * * * * * * * * * * * * * * * * * * * //
solvers {
    p { solver GAMG; tolerance 1e-7; relTol 0.1; smoother GaussSeidel; }
    U { solver smoothSolver; smoother symGaussSeidel; tolerance 1e-8; relTol 0.1; }
    "(k|epsilon)" { solver smoothSolver; smoother symGaussSeidel; tolerance 1e-8; relTol 0.1; }
}
SIMPLE {
    nNonOrthogonalCorrectors 2;
    residualControl
    {
        p               1e-3;
        U               1e-4;
        "(k|epsilon)"   1e-4;
    }
}
relaxationFactors { fields { p 0.3; } equations { U 0.7; "(k|epsilon)" 0.7; } }