/*--------------------------------*- C++ -*----------------------------------*\
  =========                 |
  \\      /  F ield         | OpenFOAM: The Open Source CFD Toolbox
   \\    /   O peration     | Website:  https://openfoam.org
    \\  /    A nd           | Version:  13
     \\/     M anipulation  |
\*---------------------------------------------------------------------------*/
FoamFile
{
    format      ascii;
    class       dictionary;
    object      topoSetDict;
}
// * * * * * * * * * * * * * * * * * * * * * * * * * * * * * * * * * * * * * //
actions
(
{
        name actuationDiskSource1;
        type cellSet;
        action new;
        source boxToCell;
        sourceInfo
        { box (447.24 2625.26 61.93) (687.24 2865.26 261.93); }
    }
    {
        name actuationDiskSource1;
        type cellZoneSet;
        action new;
        source setToCellZone;
        sourceInfo { set actuationDiskSource1; }
    }
{
        name actuationDiskSource2;
        type cellSet;
        action new;
        source boxToCell;
        sourceInfo
        { box (728.45 2463.63 64.87) (968.45 2703.63 264.87); }
    }
    {
        name actuationDiskSource2;
        type cellZoneSet;
        action new;
        source setToCellZone;
        sourceInfo { set actuationDiskSource2; }
    }
{
        name actuationDiskSource3;
        type cellSet;
        action new;
        source boxToCell;
        sourceInfo
        { box (1006.89 2297.61 67.22) (1246.89 2537.61 267.22); }
    }
    {
        name actuationDiskSource3;
        type cellZoneSet;
        action new;
        source setToCellZone;
        sourceInfo { set actuationDiskSource3; }
    }
{
        name actuationDiskSource4;
        type cellSet;
        action new;
        source boxToCell;
        sourceInfo
        { box (1311.14 2133.57 70.69) (1551.14 2373.57 270.69); }
    }
    {
        name actuationDiskSource4;
        type cellZoneSet;
        action new;
        source setToCellZone;
        sourceInfo { set actuationDiskSource4; }
    }
{
        name actuationDiskSource5;
        type cellSet;
        action new;
        source boxToCell;
        sourceInfo
        { box (1584.28 1904.60 76.13) (1824.28 2144.60 276.13); }
    }
    {
        name actuationDiskSource5;
        type cellZoneSet;
        action new;
        source setToCellZone;
        sourceInfo { set actuationDiskSource5; }
    }
{
        name actuationDiskSource6;
        type cellSet;
        action new;
        source boxToCell;
        sourceInfo
        { box (1874.78 1705.09 84.58) (2114.78 1945.09 284.58); }
    }
    {
        name actuationDiskSource6;
        type cellZoneSet;
        action new;
        source setToCellZone;
        sourceInfo { set actuationDiskSource6; }
    }
{
        name actuationDiskSource7;
        type cellSet;
        action new;
        source boxToCell;
        sourceInfo
        { box (278.18 1928.81 62.58) (518.18 2168.81 262.58); }
    }
    {
        name actuationDiskSource7;
        type cellZoneSet;
        action new;
        source setToCellZone;
        sourceInfo { set actuationDiskSource7; }
    }
{
        name actuationDiskSource8;
        type cellSet;
        action new;
        source boxToCell;
        sourceInfo
        { box (577.73 1745.68 64.37) (817.73 1985.68 264.37); }
    }
    {
        name actuationDiskSource8;
        type cellZoneSet;
        action new;
        source setToCellZone;
        sourceInfo { set actuationDiskSource8; }
    }
{
        name actuationDiskSource9;
        type cellSet;
        action new;
        source boxToCell;
        sourceInfo
        { box (880.82 1570.09 68.82) (1120.82 1810.09 268.82); }
    }
    {
        name actuationDiskSource9;
        type cellZoneSet;
        action new;
        source setToCellZone;
        sourceInfo { set actuationDiskSource9; }
    }
{
        name actuationDiskSource10;
        type cellSet;
        action new;
        source boxToCell;
        sourceInfo
        { box (1182.76 1382.95 77.70) (1422.76 1622.95 277.70); }
    }
    {
        name actuationDiskSource10;
        type cellZoneSet;
        action new;
        source setToCellZone;
        sourceInfo { set actuationDiskSource10; }
    }
{
        name actuationDiskSource11;
        type cellSet;
        action new;
        source boxToCell;
        sourceInfo
        { box (1454.20 1174.68 92.21) (1694.20 1414.68 292.21); }
    }
    {
        name actuationDiskSource11;
        type cellZoneSet;
        action new;
        source setToCellZone;
        sourceInfo { set actuationDiskSource11; }
    }
{
        name actuationDiskSource12;
        type cellSet;
        action new;
        source boxToCell;
        sourceInfo
        { box (-827.33 1992.37 66.54) (-587.33 2232.37 266.54); }
    }
    {
        name actuationDiskSource12;
        type cellZoneSet;
        action new;
        source setToCellZone;
        sourceInfo { set actuationDiskSource12; }
    }
{
        name actuationDiskSource13;
        type cellSet;
        action new;
        source boxToCell;
        sourceInfo
        { box (-544.96 1828.78 62.47) (-304.96 2068.78 262.47); }
    }
    {
        name actuationDiskSource13;
        type cellZoneSet;
        action new;
        source setToCellZone;
        sourceInfo { set actuationDiskSource13; }
    }
{
        name actuationDiskSource14;
        type cellSet;
        action new;
        source boxToCell;
        sourceInfo
        { box (-261.03 1671.54 63.07) (-21.03 1911.54 263.07); }
    }
    {
        name actuationDiskSource14;
        type cellZoneSet;
        action new;
        source setToCellZone;
        sourceInfo { set actuationDiskSource14; }
    }
{
        name actuationDiskSource15;
        type cellSet;
        action new;
        source boxToCell;
        sourceInfo
        { box (308.73 1089.48 66.41) (548.73 1329.48 266.41); }
    }
    {
        name actuationDiskSource15;
        type cellZoneSet;
        action new;
        source setToCellZone;
        sourceInfo { set actuationDiskSource15; }
    }
{
        name actuationDiskSource16;
        type cellSet;
        action new;
        source boxToCell;
        sourceInfo
        { box (632.09 907.12 72.76) (872.09 1147.12 272.76); }
    }
    {
        name actuationDiskSource16;
        type cellZoneSet;
        action new;
        source setToCellZone;
        sourceInfo { set actuationDiskSource16; }
    }
{
        name actuationDiskSource17;
        type cellSet;
        action new;
        source boxToCell;
        sourceInfo
        { box (-1025.89 1237.49 64.51) (-785.89 1477.49 264.51); }
    }
    {
        name actuationDiskSource17;
        type cellZoneSet;
        action new;
        source setToCellZone;
        sourceInfo { set actuationDiskSource17; }
    }
{
        name actuationDiskSource18;
        type cellSet;
        action new;
        source boxToCell;
        sourceInfo
        { box (-648.25 987.51 64.77) (-408.25 1227.51 264.77); }
    }
    {
        name actuationDiskSource18;
        type cellZoneSet;
        action new;
        source setToCellZone;
        sourceInfo { set actuationDiskSource18; }
    }
{
        name actuationDiskSource19;
        type cellSet;
        action new;
        source boxToCell;
        sourceInfo
        { box (-317.18 760.99 64.64) (-77.18 1000.99 264.64); }
    }
    {
        name actuationDiskSource19;
        type cellZoneSet;
        action new;
        source setToCellZone;
        sourceInfo { set actuationDiskSource19; }
    }
{
        name actuationDiskSource20;
        type cellSet;
        action new;
        source boxToCell;
        sourceInfo
        { box (294.15 293.58 71.12) (534.15 533.58 271.12); }
    }
    {
        name actuationDiskSource20;
        type cellZoneSet;
        action new;
        source setToCellZone;
        sourceInfo { set actuationDiskSource20; }
    }
{
        name actuationDiskSource21;
        type cellSet;
        action new;
        source boxToCell;
        sourceInfo
        { box (610.33 109.62 79.38) (850.33 349.62 279.38); }
    }
    {
        name actuationDiskSource21;
        type cellZoneSet;
        action new;
        source setToCellZone;
        sourceInfo { set actuationDiskSource21; }
    }
{
        name actuationDiskSource22;
        type cellSet;
        action new;
        source boxToCell;
        sourceInfo
        { box (1411.96 -64.06 101.64) (1651.96 175.94 301.64); }
    }
    {
        name actuationDiskSource22;
        type cellZoneSet;
        action new;
        source setToCellZone;
        sourceInfo { set actuationDiskSource22; }
    }
{
        name actuationDiskSource23;
        type cellSet;
        action new;
        source boxToCell;
        sourceInfo
        { box (1095.40 111.56 91.73) (1335.40 351.56 291.73); }
    }
    {
        name actuationDiskSource23;
        type cellZoneSet;
        action new;
        source setToCellZone;
        sourceInfo { set actuationDiskSource23; }
    }
{
        name actuationDiskSource24;
        type cellSet;
        action new;
        source boxToCell;
        sourceInfo
        { box (-1185.40 386.88 70.00) (-945.40 626.88 270.00); }
    }
    {
        name actuationDiskSource24;
        type cellZoneSet;
        action new;
        source setToCellZone;
        sourceInfo { set actuationDiskSource24; }
    }
{
        name actuationDiskSource25;
        type cellSet;
        action new;
        source boxToCell;
        sourceInfo
        { box (-859.07 89.78 71.82) (-619.07 329.78 271.82); }
    }
    {
        name actuationDiskSource25;
        type cellZoneSet;
        action new;
        source setToCellZone;
        sourceInfo { set actuationDiskSource25; }
    }
{
        name actuationDiskSource26;
        type cellSet;
        action new;
        source boxToCell;
        sourceInfo
        { box (-496.31 -70.85 67.86) (-256.31 169.15 267.86); }
    }
    {
        name actuationDiskSource26;
        type cellZoneSet;
        action new;
        source setToCellZone;
        sourceInfo { set actuationDiskSource26; }
    }
{
        name actuationDiskSource27;
        type cellSet;
        action new;
        source boxToCell;
        sourceInfo
        { box (53.52 -376.39 71.92) (293.52 -136.39 271.92); }
    }
    {
        name actuationDiskSource27;
        type cellZoneSet;
        action new;
        source setToCellZone;
        sourceInfo { set actuationDiskSource27; }
    }
{
        name actuationDiskSource28;
        type cellSet;
        action new;
        source boxToCell;
        sourceInfo
        { box (384.44 -606.36 79.67) (624.44 -366.36 279.67); }
    }
    {
        name actuationDiskSource28;
        type cellZoneSet;
        action new;
        source setToCellZone;
        sourceInfo { set actuationDiskSource28; }
    }
{
        name actuationDiskSource29;
        type cellSet;
        action new;
        source boxToCell;
        sourceInfo
        { box (736.76 -773.35 86.19) (976.76 -533.35 286.19); }
    }
    {
        name actuationDiskSource29;
        type cellZoneSet;
        action new;
        source setToCellZone;
        sourceInfo { set actuationDiskSource29; }
    }
{
        name actuationDiskSource30;
        type cellSet;
        action new;
        source boxToCell;
        sourceInfo
        { box (1087.02 -948.75 98.20) (1327.02 -708.75 298.20); }
    }
    {
        name actuationDiskSource30;
        type cellZoneSet;
        action new;
        source setToCellZone;
        sourceInfo { set actuationDiskSource30; }
    }
{
        name actuationDiskSource31;
        type cellSet;
        action new;
        source boxToCell;
        sourceInfo
        { box (-1442.54 -328.74 73.75) (-1202.54 -88.74 273.75); }
    }
    {
        name actuationDiskSource31;
        type cellZoneSet;
        action new;
        source setToCellZone;
        sourceInfo { set actuationDiskSource31; }
    }
{
        name actuationDiskSource32;
        type cellSet;
        action new;
        source boxToCell;
        sourceInfo
        { box (-1043.94 -548.85 69.72) (-803.94 -308.85 269.72); }
    }
    {
        name actuationDiskSource32;
        type cellZoneSet;
        action new;
        source setToCellZone;
        sourceInfo { set actuationDiskSource32; }
    }
{
        name actuationDiskSource33;
        type cellSet;
        action new;
        source boxToCell;
        sourceInfo
        { box (-713.23 -731.19 68.93) (-473.23 -491.19 268.93); }
    }
    {
        name actuationDiskSource33;
        type cellZoneSet;
        action new;
        source setToCellZone;
        sourceInfo { set actuationDiskSource33; }
    }
{
        name actuationDiskSource34;
        type cellSet;
        action new;
        source boxToCell;
        sourceInfo
        { box (-205.44 -1014.34 81.75) (34.56 -774.34 281.75); }
    }
    {
        name actuationDiskSource34;
        type cellZoneSet;
        action new;
        source setToCellZone;
        sourceInfo { set actuationDiskSource34; }
    }
{
        name actuationDiskSource35;
        type cellSet;
        action new;
        source boxToCell;
        sourceInfo
        { box (131.50 -1183.41 85.24) (371.50 -943.41 285.24); }
    }
    {
        name actuationDiskSource35;
        type cellZoneSet;
        action new;
        source setToCellZone;
        sourceInfo { set actuationDiskSource35; }
    }
{
        name actuationDiskSource36;
        type cellSet;
        action new;
        source boxToCell;
        sourceInfo
        { box (440.71 -1404.99 100.04) (680.71 -1164.99 300.04); }
    }
    {
        name actuationDiskSource36;
        type cellZoneSet;
        action new;
        source setToCellZone;
        sourceInfo { set actuationDiskSource36; }
    }
{
        name actuationDiskSource37;
        type cellSet;
        action new;
        source boxToCell;
        sourceInfo
        { box (-1756.64 -949.83 71.70) (-1516.64 -709.83 271.70); }
    }
    {
        name actuationDiskSource37;
        type cellZoneSet;
        action new;
        source setToCellZone;
        sourceInfo { set actuationDiskSource37; }
    }
{
        name actuationDiskSource38;
        type cellSet;
        action new;
        source boxToCell;
        sourceInfo
        { box (-1446.22 -1130.05 72.29) (-1206.22 -890.05 272.29); }
    }
    {
        name actuationDiskSource38;
        type cellZoneSet;
        action new;
        source setToCellZone;
        sourceInfo { set actuationDiskSource38; }
    }
{
        name actuationDiskSource39;
        type cellSet;
        action new;
        source boxToCell;
        sourceInfo
        { box (-1108.21 -1312.73 72.05) (-868.21 -1072.73 272.05); }
    }
    {
        name actuationDiskSource39;
        type cellZoneSet;
        action new;
        source setToCellZone;
        sourceInfo { set actuationDiskSource39; }
    }
{
        name actuationDiskSource40;
        type cellSet;
        action new;
        source boxToCell;
        sourceInfo
        { box (-797.06 -1502.07 72.66) (-557.06 -1262.07 272.66); }
    }
    {
        name actuationDiskSource40;
        type cellZoneSet;
        action new;
        source setToCellZone;
        sourceInfo { set actuationDiskSource40; }
    }
{
        name actuationDiskSource41;
        type cellSet;
        action new;
        source boxToCell;
        sourceInfo
        { box (-259.38 -1760.05 83.67) (-19.38 -1520.05 283.67); }
    }
    {
        name actuationDiskSource41;
        type cellZoneSet;
        action new;
        source setToCellZone;
        sourceInfo { set actuationDiskSource41; }
    }
{
        name actuationDiskSource42;
        type cellSet;
        action new;
        source boxToCell;
        sourceInfo
        { box (-2051.82 -1590.47 78.61) (-1811.82 -1350.47 278.61); }
    }
    {
        name actuationDiskSource42;
        type cellZoneSet;
        action new;
        source setToCellZone;
        sourceInfo { set actuationDiskSource42; }
    }
{
        name actuationDiskSource43;
        type cellSet;
        action new;
        source boxToCell;
        sourceInfo
        { box (-1777.82 -1749.69 75.02) (-1537.82 -1509.69 275.02); }
    }
    {
        name actuationDiskSource43;
        type cellZoneSet;
        action new;
        source setToCellZone;
        sourceInfo { set actuationDiskSource43; }
    }
{
        name actuationDiskSource44;
        type cellSet;
        action new;
        source boxToCell;
        sourceInfo
        { box (-1469.58 -1914.52 73.83) (-1229.58 -1674.52 273.83); }
    }
    {
        name actuationDiskSource44;
        type cellZoneSet;
        action new;
        source setToCellZone;
        sourceInfo { set actuationDiskSource44; }
    }
{
        name actuationDiskSource45;
        type cellSet;
        action new;
        source boxToCell;
        sourceInfo
        { box (-1157.44 -2093.71 74.33) (-917.44 -1853.71 274.33); }
    }
    {
        name actuationDiskSource45;
        type cellZoneSet;
        action new;
        source setToCellZone;
        sourceInfo { set actuationDiskSource45; }
    }
{
        name actuationDiskSource46;
        type cellSet;
        action new;
        source boxToCell;
        sourceInfo
        { box (-742.09 -2329.97 81.94) (-502.09 -2089.97 281.94); }
    }
    {
        name actuationDiskSource46;
        type cellZoneSet;
        action new;
        source setToCellZone;
        sourceInfo { set actuationDiskSource46; }
    }

);
